#####
NoGVNO2 - Run 1
2025-01-28 22:49:26
#####

No compatibility mode selected!


Circuit: * iscas85 benchmark circuit spice netlist

Doing analysis at TEMP = 27.000000 and TNOM = 27.000000

Using transient initial conditions

No. of Data Rows : 123
Total CPU time (seconds) = 176.137 
Total DRAM available = 31831.258 MB.
DRAM currently available = 18329.902 MB.
Maximum ngspice program size =  201.379 MB.
Current ngspice program size =  185.340 MB.

Shared ngspice pages =   10.312 MB.
Text (code) pages =    4.613 MB.
Stack = 0 bytes.
Library pages =  179.457 MB.
0 page faults, 1 vol + 67283 invol = 67284 context switches.

Number of lines in the deck = 111651
Netlist loading time = 3.61197
Subckt and Param expansion time = 0.86084
Netlist parsing time = 0.611395

Nominal temperature = 27
Operating temperature = 27
Total iterations = 491
Transient iterations = 491
Circuit Equations = 101564
Circuit original non-zeroes = 536231
Circuit fill-in non-zeroes = 129502
Circuit total non-zeroes = 665733
Transient timepoints = 125
Accepted timepoints = 124
Rejected timepoints = 1
Total analysis time (seconds) = 171.507
Matrix load time = 47.5933
Matrix synchronize time = 0
Matrix reorder time = 63.9281
Matrix factor time = 24.2865
Matrix solve time = 13.6865
Transient analysis time = 153.603
Transient load time = 47.5185
Transient sync time = 0
Transient factor time = 24.2865
Transient solve time = 13.6865
Transient trunc time = 1.82486
Transient iterations for the last time point = 0
AC analysis time = 0
AC load time = 0
AC sync time = 0
AC factor time = 0
AC solve time = 0

#####
NoGVNO2 - Run 2
2025-01-28 22:52:28
#####

No compatibility mode selected!


Circuit: * iscas85 benchmark circuit spice netlist

Doing analysis at TEMP = 27.000000 and TNOM = 27.000000

Using transient initial conditions

No. of Data Rows : 123
Total CPU time (seconds) = 176.430 
Total DRAM available = 31831.258 MB.
DRAM currently available = 18335.180 MB.
Maximum ngspice program size =  201.379 MB.
Current ngspice program size =  185.309 MB.

Shared ngspice pages =   10.312 MB.
Text (code) pages =    4.613 MB.
Stack = 0 bytes.
Library pages =  179.457 MB.
0 page faults, 0 vol + 67469 invol = 67469 context switches.

Number of lines in the deck = 111651
Netlist loading time = 3.61789
Subckt and Param expansion time = 0.860011
Netlist parsing time = 0.601199

Nominal temperature = 27
Operating temperature = 27
Total iterations = 491
Transient iterations = 491
Circuit Equations = 101564
Circuit original non-zeroes = 536231
Circuit fill-in non-zeroes = 129502
Circuit total non-zeroes = 665733
Transient timepoints = 125
Accepted timepoints = 124
Rejected timepoints = 1
Total analysis time (seconds) = 171.79
Matrix load time = 47.5515
Matrix synchronize time = 0
Matrix reorder time = 64.0261
Matrix factor time = 24.4863
Matrix solve time = 13.737
Transient analysis time = 153.897
Transient load time = 47.4765
Transient sync time = 0
Transient factor time = 24.4863
Transient solve time = 13.737
Transient trunc time = 1.82106
Transient iterations for the last time point = 0
AC analysis time = 0
AC load time = 0
AC sync time = 0
AC factor time = 0
AC solve time = 0

#####
NoGVNO2 - Run 3
2025-01-28 22:55:28
#####

No compatibility mode selected!


Circuit: * iscas85 benchmark circuit spice netlist

Doing analysis at TEMP = 27.000000 and TNOM = 27.000000

Using transient initial conditions

No. of Data Rows : 123
Total CPU time (seconds) = 177.207 
Total DRAM available = 31831.258 MB.
DRAM currently available = 18335.301 MB.
Maximum ngspice program size =  201.375 MB.
Current ngspice program size =  185.391 MB.

Shared ngspice pages =   10.312 MB.
Text (code) pages =    4.613 MB.
Stack = 0 bytes.
Library pages =  179.453 MB.
0 page faults, 1 vol + 67689 invol = 67690 context switches.

Number of lines in the deck = 111651
Netlist loading time = 3.68794
Subckt and Param expansion time = 0.878464
Netlist parsing time = 0.616283

Nominal temperature = 27
Operating temperature = 27
Total iterations = 491
Transient iterations = 491
Circuit Equations = 101564
Circuit original non-zeroes = 536231
Circuit fill-in non-zeroes = 129502
Circuit total non-zeroes = 665733
Transient timepoints = 125
Accepted timepoints = 124
Rejected timepoints = 1
Total analysis time (seconds) = 172.499
Matrix load time = 47.9375
Matrix synchronize time = 0
Matrix reorder time = 63.8903
Matrix factor time = 24.7982
Matrix solve time = 13.8034
Transient analysis time = 154.523
Transient load time = 47.8656
Transient sync time = 0
Transient factor time = 24.7982
Transient solve time = 13.8034
Transient trunc time = 1.81716
Transient iterations for the last time point = 0
AC analysis time = 0
AC load time = 0
AC sync time = 0
AC factor time = 0
AC solve time = 0

