#####
GVNO3 - Run 1
2025-02-06 17:30:44
#####

No compatibility mode selected!


Circuit: * iscas85 benchmark circuit spice netlist

Doing analysis at TEMP = 27.000000 and TNOM = 27.000000

Using transient initial conditions

No. of Data Rows : 123
Total CPU time (seconds) = 174.893 
Total DRAM available = 31828.992 MB.
DRAM currently available = 25666.996 MB.
Maximum ngspice program size =  201.543 MB.
Current ngspice program size =  185.414 MB.

Shared ngspice pages =   10.312 MB.
Text (code) pages =    4.781 MB.
Stack = 0 bytes.
Library pages =  179.457 MB.
0 page faults, 17 vol + 194 invol = 211 context switches.

Number of lines in the deck = 111651
Netlist loading time = 2.83985
Subckt and Param expansion time = 0.859971
Netlist parsing time = 0.615394

Nominal temperature = 27
Operating temperature = 27
Total iterations = 491
Transient iterations = 491
Circuit Equations = 101564
Circuit original non-zeroes = 536231
Circuit fill-in non-zeroes = 129502
Circuit total non-zeroes = 665733
Transient timepoints = 125
Accepted timepoints = 124
Rejected timepoints = 1
Total analysis time (seconds) = 171.047
Matrix load time = 47.4331
Matrix synchronize time = 0
Matrix reorder time = 62.783
Matrix factor time = 25.1941
Matrix solve time = 13.6836
Transient analysis time = 153.427
Transient load time = 47.3552
Transient sync time = 0
Transient factor time = 25.1941
Transient solve time = 13.6836
Transient trunc time = 2.05518
Transient iterations for the last time point = 0
AC analysis time = 0
AC load time = 0
AC sync time = 0
AC factor time = 0
AC solve time = 0

#####
GVNO3 - Run 2
2025-02-06 17:33:42
#####

No compatibility mode selected!


Circuit: * iscas85 benchmark circuit spice netlist

Doing analysis at TEMP = 27.000000 and TNOM = 27.000000

Using transient initial conditions

No. of Data Rows : 123
Total CPU time (seconds) = 174.020 
Total DRAM available = 31828.992 MB.
DRAM currently available = 25668.844 MB.
Maximum ngspice program size =  201.543 MB.
Current ngspice program size =  185.137 MB.

Shared ngspice pages =   10.125 MB.
Text (code) pages =    4.781 MB.
Stack = 0 bytes.
Library pages =  179.457 MB.
0 page faults, 0 vol + 202 invol = 202 context switches.

Number of lines in the deck = 111651
Netlist loading time = 2.98442
Subckt and Param expansion time = 0.844938
Netlist parsing time = 0.605517

Nominal temperature = 27
Operating temperature = 27
Total iterations = 491
Transient iterations = 491
Circuit Equations = 101564
Circuit original non-zeroes = 536231
Circuit fill-in non-zeroes = 129502
Circuit total non-zeroes = 665733
Transient timepoints = 125
Accepted timepoints = 124
Rejected timepoints = 1
Total analysis time (seconds) = 170.023
Matrix load time = 47.1974
Matrix synchronize time = 0
Matrix reorder time = 62.7401
Matrix factor time = 24.6292
Matrix solve time = 13.5036
Transient analysis time = 152.393
Transient load time = 47.1227
Transient sync time = 0
Transient factor time = 24.6292
Transient solve time = 13.5036
Transient trunc time = 2.04957
Transient iterations for the last time point = 0
AC analysis time = 0
AC load time = 0
AC sync time = 0
AC factor time = 0
AC solve time = 0

#####
GVNO3 - Run 3
2025-02-06 17:36:43
#####

No compatibility mode selected!


Circuit: * iscas85 benchmark circuit spice netlist

Doing analysis at TEMP = 27.000000 and TNOM = 27.000000

Using transient initial conditions

No. of Data Rows : 123
Total CPU time (seconds) = 178.331 
Total DRAM available = 31828.992 MB.
DRAM currently available = 25667.039 MB.
Maximum ngspice program size =  201.543 MB.
Current ngspice program size =  185.262 MB.

Shared ngspice pages =   10.125 MB.
Text (code) pages =    4.781 MB.
Stack = 0 bytes.
Library pages =  179.457 MB.
0 page faults, 0 vol + 203 invol = 203 context switches.

Number of lines in the deck = 111651
Netlist loading time = 3.57995
Subckt and Param expansion time = 0.853583
Netlist parsing time = 0.610034

Nominal temperature = 27
Operating temperature = 27
Total iterations = 491
Transient iterations = 491
Circuit Equations = 101564
Circuit original non-zeroes = 536231
Circuit fill-in non-zeroes = 129502
Circuit total non-zeroes = 665733
Transient timepoints = 125
Accepted timepoints = 124
Rejected timepoints = 1
Total analysis time (seconds) = 173.748
Matrix load time = 47.3025
Matrix synchronize time = 0
Matrix reorder time = 65.6554
Matrix factor time = 25.0731
Matrix solve time = 13.7413
Transient analysis time = 156.111
Transient load time = 47.2266
Transient sync time = 0
Transient factor time = 25.0731
Transient solve time = 13.7413
Transient trunc time = 2.06387
Transient iterations for the last time point = 0
AC analysis time = 0
AC load time = 0
AC sync time = 0
AC factor time = 0
AC solve time = 0

