#####
NoGVNO3 - Run 1
2025-02-04 23:01:49
#####

No compatibility mode selected!


Circuit: * iscas85 benchmark circuit spice netlist

Doing analysis at TEMP = 27.000000 and TNOM = 27.000000

Using transient initial conditions

No. of Data Rows : 123
Total CPU time (seconds) = 176.628 
Total DRAM available = 31831.258 MB.
DRAM currently available = 5757.695 MB.
Maximum ngspice program size =  201.598 MB.
Current ngspice program size =  185.633 MB.

Shared ngspice pages =   10.500 MB.
Text (code) pages =    4.836 MB.
Stack = 0 bytes.
Library pages =  179.453 MB.
0 page faults, 84 vol + 152 invol = 236 context switches.

Number of lines in the deck = 111651
Netlist loading time = 3.48619
Subckt and Param expansion time = 0.845234
Netlist parsing time = 0.597808

Nominal temperature = 27
Operating temperature = 27
Total iterations = 491
Transient iterations = 491
Circuit Equations = 101564
Circuit original non-zeroes = 536231
Circuit fill-in non-zeroes = 129502
Circuit total non-zeroes = 665733
Transient timepoints = 125
Accepted timepoints = 124
Rejected timepoints = 1
Total analysis time (seconds) = 172.122
Matrix load time = 48.0439
Matrix synchronize time = 0
Matrix reorder time = 63.6638
Matrix factor time = 24.7298
Matrix solve time = 13.704
Transient analysis time = 154.212
Transient load time = 47.9666
Transient sync time = 0
Transient factor time = 24.7298
Transient solve time = 13.704
Transient trunc time = 1.7856
Transient iterations for the last time point = 0
AC analysis time = 0
AC load time = 0
AC sync time = 0
AC factor time = 0
AC solve time = 0

#####
NoGVNO3 - Run 2
2025-02-04 23:04:49
#####

No compatibility mode selected!


Circuit: * iscas85 benchmark circuit spice netlist

Doing analysis at TEMP = 27.000000 and TNOM = 27.000000

Using transient initial conditions

No. of Data Rows : 123
Total CPU time (seconds) = 174.876 
Total DRAM available = 31831.258 MB.
DRAM currently available = 5788.012 MB.
Maximum ngspice program size =  201.598 MB.
Current ngspice program size =  185.441 MB.

Shared ngspice pages =   10.312 MB.
Text (code) pages =    4.836 MB.
Stack = 0 bytes.
Library pages =  179.453 MB.
0 page faults, 73 vol + 151 invol = 224 context switches.

Number of lines in the deck = 111651
Netlist loading time = 3.41509
Subckt and Param expansion time = 0.865645
Netlist parsing time = 0.623005

Nominal temperature = 27
Operating temperature = 27
Total iterations = 491
Transient iterations = 491
Circuit Equations = 101564
Circuit original non-zeroes = 536231
Circuit fill-in non-zeroes = 129502
Circuit total non-zeroes = 665733
Transient timepoints = 125
Accepted timepoints = 124
Rejected timepoints = 1
Total analysis time (seconds) = 170.465
Matrix load time = 47.1828
Matrix synchronize time = 0
Matrix reorder time = 63.3621
Matrix factor time = 24.5856
Matrix solve time = 13.4552
Transient analysis time = 152.639
Transient load time = 47.1081
Transient sync time = 0
Transient factor time = 24.5856
Transient solve time = 13.4552
Transient trunc time = 1.77365
Transient iterations for the last time point = 0
AC analysis time = 0
AC load time = 0
AC sync time = 0
AC factor time = 0
AC solve time = 0

#####
NoGVNO3 - Run 3
2025-02-04 23:07:54
#####

No compatibility mode selected!


Circuit: * iscas85 benchmark circuit spice netlist

Doing analysis at TEMP = 27.000000 and TNOM = 27.000000

Using transient initial conditions

No. of Data Rows : 123
Total CPU time (seconds) = 182.706 
Total DRAM available = 31831.258 MB.
DRAM currently available = 5794.309 MB.
Maximum ngspice program size =  201.602 MB.
Current ngspice program size =  185.562 MB.

Shared ngspice pages =   10.500 MB.
Text (code) pages =    4.836 MB.
Stack = 0 bytes.
Library pages =  179.457 MB.
0 page faults, 7 vol + 169 invol = 176 context switches.

Number of lines in the deck = 111651
Netlist loading time = 3.36871
Subckt and Param expansion time = 0.862623
Netlist parsing time = 0.612357

Nominal temperature = 27
Operating temperature = 27
Total iterations = 491
Transient iterations = 491
Circuit Equations = 101564
Circuit original non-zeroes = 536231
Circuit fill-in non-zeroes = 129502
Circuit total non-zeroes = 665733
Transient timepoints = 125
Accepted timepoints = 124
Rejected timepoints = 1
Total analysis time (seconds) = 178.321
Matrix load time = 47.5247
Matrix synchronize time = 0
Matrix reorder time = 69.9348
Matrix factor time = 25.017
Matrix solve time = 13.9243
Transient analysis time = 160.431
Transient load time = 47.4455
Transient sync time = 0
Transient factor time = 25.017
Transient solve time = 13.9243
Transient trunc time = 1.77195
Transient iterations for the last time point = 0
AC analysis time = 0
AC load time = 0
AC sync time = 0
AC factor time = 0
AC solve time = 0

